Circuit: * Z:\home\lu\source\Projects\LightTable\CircuitSimulation.asc

Warning: Multiple definitions of model "2scr375p" Type: BJT
Warning: Multiple definitions of model "bc857b" Type: BJT
Warning: Multiple definitions of model "bc847c" Type: BJT
Warning: Multiple definitions of model "bc847b" Type: BJT

Date: Sun Feb  5 19:15:23 2023
Total elapsed time: 0.057 seconds.

tnom = 27
temp = 27
method = trap
totiter = 28
traniter = 0
tranpoints = 0
accept = 0
rejected = 0
matrix size = 177
fillins = 4
solver = Normal
Avg thread counts: 8.0/0.0/8.0/8.0
Matrix Compiler1: 11.95 KB object code size
Matrix Compiler2: 14.44 KB object code size
